data/dss/p5rhs0_1247--p5rdt52/network/LineCodes.dss
New Linecode.3P_OH_AL_ACSR_4/0_Penguin_3 units=km nphases=3 Faultrate=0.1 Rmatrix=(0.3635667 0.09006667 0.09006667 | 0.09006667 0.3635667 0.09006667 | 0.09006667 0.09006667 0.3635667 ) Xmatrix=(0.6385333 0.2202333 0.2202333 | 0.2202333 0.6385333 0.2202333 | 0.2202333 0.2202333 0.6385333 ) Cmatrix=(7.448267 -3.1846329999999994 -3.1846329999999994 | -3.1846329999999994 7.448267 -3.1846329999999994 | -3.1846329999999994 -3.1846329999999994 7.448267 ) normamps=325.0

New Linecode.3P_UG_AL_3 units=km nphases=3 Faultrate=0.1 Rmatrix=(0.445 0.1745 0.1745 | 0.1745 0.445 0.1745 | 0.1745 0.1745 0.445 ) Xmatrix=(0.5326 0.2912 0.2912 | 0.2912 0.5326 0.2912 | 0.2912 0.2912 0.5326 ) Cmatrix=(145.291 -72.088 -72.088 | -72.088 145.291 -72.088 | -72.088 -72.088 145.291 ) normamps=285.0

New Linecode.goab_disswitch_3 units=km nphases=3 Faultrate=0.1 Rmatrix=(0.001 0.0 0.0 | 0.0 0.001 0.0 | 0.0 0.0 0.001 ) Xmatrix=(0.001 0.0 0.0 | 0.0 0.001 0.0 | 0.0 0.0 0.001 ) Cmatrix=(3.499563 -0.1093613 -0.1093613 | -0.1093613 3.499563 -0.1093613 | -0.1093613 -0.1093613 3.499563 ) normamps=325.0

New Linecode.recloser_3_1 units=km nphases=3 Faultrate=0.1 Rmatrix=(0.001 0.0 0.0 | 0.0 0.001 0.0 | 0.0 0.0 0.001 ) Xmatrix=(0.001 0.0 0.0 | 0.0 0.001 0.0 | 0.0 0.0 0.001 ) Cmatrix=(3.499563 -0.1093613 -0.1093613 | -0.1093613 3.499563 -0.1093613 | -0.1093613 -0.1093613 3.499563 ) normamps=325.0

New Linecode.goab_disswitch_3_2 units=km nphases=3 Faultrate=0.1 Rmatrix=(0.001 0.0 0.0 | 0.0 0.001 0.0 | 0.0 0.0 0.001 ) Xmatrix=(0.001 0.0 0.0 | 0.0 0.001 0.0 | 0.0 0.0 0.001 ) Cmatrix=(3.499563 -0.1093613 -0.1093613 | -0.1093613 3.499563 -0.1093613 | -0.1093613 -0.1093613 3.499563 ) normamps=285.0
