data/dss/p5rhs0_1247--p5rdt52/network/Transformers.dss
New Transformer.tr(r:p5rdt52-p5rdt52lv) phases=3 windings=2 %loadloss=1.74408 %Noloadloss=0.6 normhkva=82.5 wdg=1 conn=delta Kv=12.47 kva=75.0 EmergHKVA=112.5 %R=0.87204 bus=p5rdt52 wdg=2 conn=wye Kv=0.48 kva=75.0 EmergHKVA=112.5 %R=0.87204 bus=p5rdt52lv XHL=3.2400000000000007

New Transformer.tr(r:p5rdt142-p5rdt142lv) phases=3 windings=2 %loadloss=1.74408 %Noloadloss=0.6 normhkva=82.5 wdg=1 conn=delta Kv=12.47 kva=75.0 EmergHKVA=112.5 %R=0.87204 bus=p5rdt142 wdg=2 conn=wye Kv=0.48 kva=75.0 EmergHKVA=112.5 %R=0.87204 bus=p5rdt142lv XHL=3.2400000000000007

New Transformer.tr(r:p5rdt131-p5rdt131lv) phases=3 windings=2 %loadloss=1.74408 %Noloadloss=0.6 normhkva=82.5 wdg=1 conn=delta Kv=12.47 kva=75.0 EmergHKVA=112.5 %R=0.87204 bus=p5rdt131 wdg=2 conn=wye Kv=0.48 kva=75.0 EmergHKVA=112.5 %R=0.87204 bus=p5rdt131lv XHL=3.2400000000000007

New Transformer.tr(r:p5rdt130-p5rdt130lv) phases=3 windings=2 %loadloss=1.74408 %Noloadloss=0.6 normhkva=82.5 wdg=1 conn=delta Kv=12.47 kva=75.0 EmergHKVA=112.5 %R=0.87204 bus=p5rdt130 wdg=2 conn=wye Kv=0.48 kva=75.0 EmergHKVA=112.5 %R=0.87204 bus=p5rdt130lv XHL=3.2400000000000007

New Transformer.tr(r:p5rdt132-p5rdt132lv) phases=3 windings=2 %loadloss=1.74408 %Noloadloss=0.6 normhkva=82.5 wdg=1 conn=delta Kv=12.47 kva=75.0 EmergHKVA=112.5 %R=0.87204 bus=p5rdt132 wdg=2 conn=wye Kv=0.48 kva=75.0 EmergHKVA=112.5 %R=0.87204 bus=p5rdt132lv XHL=3.2400000000000007

New Transformer.tr(r:p5rdt62-p5rdt62lv) phases=3 windings=2 %loadloss=1.74408 %Noloadloss=0.6 normhkva=82.5 wdg=1 conn=delta Kv=12.47 kva=75.0 EmergHKVA=112.5 %R=0.87204 bus=p5rdt62 wdg=2 conn=wye Kv=0.48 kva=75.0 EmergHKVA=112.5 %R=0.87204 bus=p5rdt62lv XHL=3.2400000000000007

New Transformer.tr(r:p5rdt61-p5rdt61lv) phases=3 windings=2 %loadloss=1.74408 %Noloadloss=0.6 normhkva=82.5 wdg=1 conn=delta Kv=12.47 kva=75.0 EmergHKVA=112.5 %R=0.87204 bus=p5rdt61 wdg=2 conn=wye Kv=0.48 kva=75.0 EmergHKVA=112.5 %R=0.87204 bus=p5rdt61lv XHL=3.2400000000000007

New Transformer.tr(r:p5rdt63-p5rdt63lv) phases=3 windings=2 %loadloss=1.74408 %Noloadloss=0.6 normhkva=82.5 wdg=1 conn=delta Kv=12.47 kva=75.0 EmergHKVA=112.5 %R=0.87204 bus=p5rdt63 wdg=2 conn=wye Kv=0.48 kva=75.0 EmergHKVA=112.5 %R=0.87204 bus=p5rdt63lv XHL=3.2400000000000007

New Transformer.tr(r:p5rdt11-p5rdt11lv) phases=3 windings=2 %loadloss=1.74408 %Noloadloss=0.6 normhkva=82.5 wdg=1 conn=delta Kv=12.47 kva=75.0 EmergHKVA=112.5 %R=0.87204 bus=p5rdt11 wdg=2 conn=wye Kv=0.48 kva=75.0 EmergHKVA=112.5 %R=0.87204 bus=p5rdt11lv XHL=3.2400000000000007

New Transformer.tr(r:p5rdt10-p5rdt10lv) phases=3 windings=2 %loadloss=1.74408 %Noloadloss=0.6 normhkva=82.5 wdg=1 conn=delta Kv=12.47 kva=75.0 EmergHKVA=112.5 %R=0.87204 bus=p5rdt10 wdg=2 conn=wye Kv=0.48 kva=75.0 EmergHKVA=112.5 %R=0.87204 bus=p5rdt10lv XHL=3.2400000000000007

New Transformer.tr(r:p5rdt12-p5rdt12lv) phases=3 windings=2 %loadloss=1.74408 %Noloadloss=0.6 normhkva=82.5 wdg=1 conn=delta Kv=12.47 kva=75.0 EmergHKVA=112.5 %R=0.87204 bus=p5rdt12 wdg=2 conn=wye Kv=0.48 kva=75.0 EmergHKVA=112.5 %R=0.87204 bus=p5rdt12lv XHL=3.2400000000000007

New Transformer.tr(r:p5rdt13-p5rdt13lv) phases=3 windings=2 %loadloss=1.74408 %Noloadloss=0.6 normhkva=82.5 wdg=1 conn=delta Kv=12.47 kva=75.0 EmergHKVA=112.5 %R=0.87204 bus=p5rdt13 wdg=2 conn=wye Kv=0.48 kva=75.0 EmergHKVA=112.5 %R=0.87204 bus=p5rdt13lv XHL=3.2400000000000007

New Transformer.tr(r:p5rdt14-p5rdt14lv) phases=3 windings=2 %loadloss=1.74408 %Noloadloss=0.6 normhkva=82.5 wdg=1 conn=delta Kv=12.47 kva=75.0 EmergHKVA=112.5 %R=0.87204 bus=p5rdt14 wdg=2 conn=wye Kv=0.48 kva=75.0 EmergHKVA=112.5 %R=0.87204 bus=p5rdt14lv XHL=3.2400000000000007

New Transformer.tr(r:p5rdt60-p5rdt60lv) phases=3 windings=2 %loadloss=1.74408 %Noloadloss=0.6 normhkva=82.5 wdg=1 conn=delta Kv=12.47 kva=75.0 EmergHKVA=112.5 %R=0.87204 bus=p5rdt60 wdg=2 conn=wye Kv=0.48 kva=75.0 EmergHKVA=112.5 %R=0.87204 bus=p5rdt60lv XHL=3.2400000000000007

New Transformer.tr(r:p5rdt59-p5rdt59lv) phases=3 windings=2 %loadloss=1.74408 %Noloadloss=0.6 normhkva=82.5 wdg=1 conn=delta Kv=12.47 kva=75.0 EmergHKVA=112.5 %R=0.87204 bus=p5rdt59 wdg=2 conn=wye Kv=0.48 kva=75.0 EmergHKVA=112.5 %R=0.87204 bus=p5rdt59lv XHL=3.2400000000000007

New Transformer.tr(r:p5rdt177-p5rdt177lv) phases=3 windings=2 %loadloss=1.74408 %Noloadloss=0.6 normhkva=82.5 wdg=1 conn=delta Kv=12.47 kva=75.0 EmergHKVA=112.5 %R=0.87204 bus=p5rdt177 wdg=2 conn=wye Kv=0.48 kva=75.0 EmergHKVA=112.5 %R=0.87204 bus=p5rdt177lv XHL=3.2400000000000007

New Transformer.tr(r:p5rdt160-p5rdt160lv) phases=3 windings=2 %loadloss=1.74408 %Noloadloss=0.6 normhkva=82.5 wdg=1 conn=delta Kv=12.47 kva=75.0 EmergHKVA=112.5 %R=0.87204 bus=p5rdt160 wdg=2 conn=wye Kv=0.48 kva=75.0 EmergHKVA=112.5 %R=0.87204 bus=p5rdt160lv XHL=3.2400000000000007

New Transformer.tr(r:p5rdt161-p5rdt161lv) phases=3 windings=2 %loadloss=1.74408 %Noloadloss=0.6 normhkva=82.5 wdg=1 conn=delta Kv=12.47 kva=75.0 EmergHKVA=112.5 %R=0.87204 bus=p5rdt161 wdg=2 conn=wye Kv=0.48 kva=75.0 EmergHKVA=112.5 %R=0.87204 bus=p5rdt161lv XHL=3.2400000000000007

New Transformer.tr(r:p5rdt178-p5rdt178lv) phases=3 windings=2 %loadloss=1.74408 %Noloadloss=0.6 normhkva=82.5 wdg=1 conn=delta Kv=12.47 kva=75.0 EmergHKVA=112.5 %R=0.87204 bus=p5rdt178 wdg=2 conn=wye Kv=0.48 kva=75.0 EmergHKVA=112.5 %R=0.87204 bus=p5rdt178lv XHL=3.2400000000000007

New Transformer.tr(r:p5rdt162-p5rdt162lv) phases=3 windings=2 %loadloss=1.74408 %Noloadloss=0.6 normhkva=82.5 wdg=1 conn=delta Kv=12.47 kva=75.0 EmergHKVA=112.5 %R=0.87204 bus=p5rdt162 wdg=2 conn=wye Kv=0.48 kva=75.0 EmergHKVA=112.5 %R=0.87204 bus=p5rdt162lv XHL=3.2400000000000007

New Transformer.tr(r:p5rdt181-p5rdt181lv) phases=3 windings=2 %loadloss=1.74408 %Noloadloss=0.6 normhkva=82.5 wdg=1 conn=delta Kv=12.47 kva=75.0 EmergHKVA=112.5 %R=0.87204 bus=p5rdt181 wdg=2 conn=wye Kv=0.48 kva=75.0 EmergHKVA=112.5 %R=0.87204 bus=p5rdt181lv XHL=3.2400000000000007

New Transformer.tr(r:p5rdt182-p5rdt182lv) phases=3 windings=2 %loadloss=1.74408 %Noloadloss=0.6 normhkva=82.5 wdg=1 conn=delta Kv=12.47 kva=75.0 EmergHKVA=112.5 %R=0.87204 bus=p5rdt182 wdg=2 conn=wye Kv=0.48 kva=75.0 EmergHKVA=112.5 %R=0.87204 bus=p5rdt182lv XHL=3.2400000000000007

New Transformer.tr(r:p5rdt165-p5rdt165lv) phases=3 windings=2 %loadloss=1.74408 %Noloadloss=0.6 normhkva=82.5 wdg=1 conn=delta Kv=12.47 kva=75.0 EmergHKVA=112.5 %R=0.87204 bus=p5rdt165 wdg=2 conn=wye Kv=0.48 kva=75.0 EmergHKVA=112.5 %R=0.87204 bus=p5rdt165lv XHL=3.2400000000000007

New Transformer.tr(r:p5rdt166-p5rdt166lv) phases=3 windings=2 %loadloss=1.74408 %Noloadloss=0.6 normhkva=82.5 wdg=1 conn=delta Kv=12.47 kva=75.0 EmergHKVA=112.5 %R=0.87204 bus=p5rdt166 wdg=2 conn=wye Kv=0.48 kva=75.0 EmergHKVA=112.5 %R=0.87204 bus=p5rdt166lv XHL=3.2400000000000007

New Transformer.tr(r:p5rdt141-p5rdt141lv) phases=3 windings=2 %loadloss=1.74408 %Noloadloss=0.6 normhkva=82.5 wdg=1 conn=delta Kv=12.47 kva=75.0 EmergHKVA=112.5 %R=0.87204 bus=p5rdt141 wdg=2 conn=wye Kv=0.48 kva=75.0 EmergHKVA=112.5 %R=0.87204 bus=p5rdt141lv XHL=3.2400000000000007

New Transformer.tr(r:p5rdt143-p5rdt143lv) phases=3 windings=2 %loadloss=1.74408 %Noloadloss=0.6 normhkva=82.5 wdg=1 conn=delta Kv=12.47 kva=75.0 EmergHKVA=112.5 %R=0.87204 bus=p5rdt143 wdg=2 conn=wye Kv=0.48 kva=75.0 EmergHKVA=112.5 %R=0.87204 bus=p5rdt143lv XHL=3.2400000000000007

New Transformer.tr(r:p5rdt144-p5rdt144lv) phases=3 windings=2 %loadloss=1.74408 %Noloadloss=0.6 normhkva=82.5 wdg=1 conn=delta Kv=12.47 kva=75.0 EmergHKVA=112.5 %R=0.87204 bus=p5rdt144 wdg=2 conn=wye Kv=0.48 kva=75.0 EmergHKVA=112.5 %R=0.87204 bus=p5rdt144lv XHL=3.2400000000000007

New Transformer.tr(r:p5rdt145-p5rdt145lv) phases=3 windings=2 %loadloss=1.74408 %Noloadloss=0.6 normhkva=82.5 wdg=1 conn=delta Kv=12.47 kva=75.0 EmergHKVA=112.5 %R=0.87204 bus=p5rdt145 wdg=2 conn=wye Kv=0.48 kva=75.0 EmergHKVA=112.5 %R=0.87204 bus=p5rdt145lv XHL=3.2400000000000007
