data/dss/p5rhs0_1247--p5rdt52/network/Loads.dss
New Load.load_p5rlv15 conn=wye bus1=p5rlv15.1.2.3 kV=0.48 Vminpu=0.8 Vmaxpu=1.2 model=1 kW=5.451909124597866 kvar=1.173229792643805 Phases=3


New Load.load_p5rlv16 conn=wye bus1=p5rlv16.1.2.3 kV=0.48 Vminpu=0.8 Vmaxpu=1.2 model=1 kW=3.7510337877415565 kvar=0.4019110170158938 Phases=3


New Load.load_p5rlv17 conn=wye bus1=p5rlv17.1.2.3 kV=0.48 Vminpu=0.8 Vmaxpu=1.2 model=1 kW=5.250959757329915 kvar=0.5058498843024282 Phases=3


New Load.load_p5rlv18 conn=wye bus1=p5rlv18.1.2.3 kV=0.48 Vminpu=0.8 Vmaxpu=1.2 model=1 kW=3.0581791841922246 kvar=0.7249561684575361 Phases=3


New Load.load_p5rlv19 conn=wye bus1=p5rlv19.1.2.3 kV=0.48 Vminpu=0.8 Vmaxpu=1.2 model=1 kW=4.900704357402814 kvar=1.3897575080734765 Phases=3


New Load.load_p5rlv20 conn=wye bus1=p5rlv20.1.2.3 kV=0.48 Vminpu=0.8 Vmaxpu=1.2 model=1 kW=4.455034009940685 kvar=1.3199832297645746 Phases=3


New Load.load_p5rlv21 conn=wye bus1=p5rlv21.1.2.3 kV=0.48 Vminpu=0.8 Vmaxpu=1.2 model=1 kW=4.6536658364487655 kvar=1.3213241310776664 Phases=3


New Load.load_p5rlv22 conn=wye bus1=p5rlv22.1.2.3 kV=0.48 Vminpu=0.8 Vmaxpu=1.2 model=1 kW=4.434454000242883 kvar=1.1457821012022795 Phases=3


New Load.load_p5rlv23 conn=wye bus1=p5rlv23.1.2.3 kV=0.48 Vminpu=0.8 Vmaxpu=1.2 model=1 kW=3.025140936521714 kvar=0.6985188926529797 Phases=3


New Load.load_p5rlv24 conn=wye bus1=p5rlv24.1.2.3 kV=0.48 Vminpu=0.8 Vmaxpu=1.2 model=1 kW=5.340789570576971 kvar=1.665377331077049 Phases=3


New Load.load_p5rlv110 conn=wye bus1=p5rlv110.1.2.3 kV=0.48 Vminpu=0.8 Vmaxpu=1.2 model=1 kW=4.433450178581329 kvar=1.1068729453384383 Phases=3


New Load.load_p5rlv123 conn=wye bus1=p5rlv123.1.2.3 kV=0.48 Vminpu=0.8 Vmaxpu=1.2 model=1 kW=4.580133472274623 kvar=0.4020402558457239 Phases=3


New Load.load_p5rlv124 conn=wye bus1=p5rlv124.1.2.3 kV=0.48 Vminpu=0.8 Vmaxpu=1.2 model=1 kW=5.187432423525801 kvar=1.433323731128063 Phases=3


New Load.load_p5rlv125 conn=wye bus1=p5rlv125.1.2.3 kV=0.48 Vminpu=0.8 Vmaxpu=1.2 model=1 kW=4.485437932962169 kvar=1.2320292337744743 Phases=3


New Load.load_p5rlv126 conn=wye bus1=p5rlv126.1.2.3 kV=0.48 Vminpu=0.8 Vmaxpu=1.2 model=1 kW=5.963080633442135 kvar=0.48885479732224646 Phases=3


New Load.load_p5rlv127 conn=wye bus1=p5rlv127.1.2.3 kV=0.48 Vminpu=0.8 Vmaxpu=1.2 model=1 kW=7.13546163165136 kvar=0.05112176032164189 Phases=3


New Load.load_p5rlv128 conn=wye bus1=p5rlv128.1.2.3 kV=0.48 Vminpu=0.8 Vmaxpu=1.2 model=1 kW=4.455034009940685 kvar=1.3199832297645746 Phases=3


New Load.load_p5rlv129 conn=wye bus1=p5rlv129.1.2.3 kV=0.48 Vminpu=0.8 Vmaxpu=1.2 model=1 kW=7.71017147493843 kvar=0.5980602905086343 Phases=3


New Load.load_p5rlv130 conn=wye bus1=p5rlv130.1.2.3 kV=0.48 Vminpu=0.8 Vmaxpu=1.2 model=1 kW=5.829973892362935 kvar=1.153516404485815 Phases=3


New Load.load_p5rlv131 conn=wye bus1=p5rlv131.1.2.3 kV=0.48 Vminpu=0.8 Vmaxpu=1.2 model=1 kW=4.281924346028378 kvar=0.21611660217127207 Phases=3


New Load.load_p5rlv132 conn=wye bus1=p5rlv132.1.2.3 kV=0.48 Vminpu=0.8 Vmaxpu=1.2 model=1 kW=3.708338783265159 kvar=0.8824667805472646 Phases=3


New Load.load_p5rlv133 conn=wye bus1=p5rlv133.1.2.3 kV=0.48 Vminpu=0.8 Vmaxpu=1.2 model=1 kW=3.394539092094676 kvar=0.837045772820735 Phases=3


New Load.load_p5rlv134 conn=wye bus1=p5rlv134.1.2.3 kV=0.48 Vminpu=0.8 Vmaxpu=1.2 model=1 kW=4.580133472274623 kvar=0.4020402558457239 Phases=3


New Load.load_p5rlv135 conn=wye bus1=p5rlv135.1.2.3 kV=0.48 Vminpu=0.8 Vmaxpu=1.2 model=1 kW=5.5870773940808816 kvar=0.037844278067981456 Phases=3


New Load.load_p5rlv237 conn=wye bus1=p5rlv237.1.2.3 kV=0.48 Vminpu=0.8 Vmaxpu=1.2 model=1 kW=3.7973697336928827 kvar=1.0868973722790487 Phases=3


New Load.load_p5rlv238 conn=wye bus1=p5rlv238.1.2.3 kV=0.48 Vminpu=0.8 Vmaxpu=1.2 model=1 kW=4.6116231582632 kvar=1.3228079918721418 Phases=3


New Load.load_p5rlv239 conn=wye bus1=p5rlv239.1.2.3 kV=0.48 Vminpu=0.8 Vmaxpu=1.2 model=1 kW=8.464114024336961 kvar=0.5026635699173773 Phases=3


New Load.load_p5rlv240 conn=wye bus1=p5rlv240.1.2.3 kV=0.48 Vminpu=0.8 Vmaxpu=1.2 model=1 kW=4.889451536775406 kvar=1.3804535825319604 Phases=3


New Load.load_p5rlv241 conn=wye bus1=p5rlv241.1.2.3 kV=0.48 Vminpu=0.8 Vmaxpu=1.2 model=1 kW=3.175446179477611 kvar=0.8777535958466735 Phases=3


New Load.load_p5rlv242 conn=wye bus1=p5rlv242.1.2.3 kV=0.48 Vminpu=0.8 Vmaxpu=1.2 model=1 kW=7.205596949394903 kvar=0.24586805932327946 Phases=3


New Load.load_p5rlv254 conn=wye bus1=p5rlv254.1.2.3 kV=0.48 Vminpu=0.8 Vmaxpu=1.2 model=1 kW=4.341837222614916 kvar=1.150826843787542 Phases=3


New Load.load_p5rlv255 conn=wye bus1=p5rlv255.1.2.3 kV=0.48 Vminpu=0.8 Vmaxpu=1.2 model=1 kW=5.1514819543285855 kvar=1.530580299915011 Phases=3


New Load.load_p5rlv256 conn=wye bus1=p5rlv256.1.2.3 kV=0.48 Vminpu=0.8 Vmaxpu=1.2 model=1 kW=4.797348084525845 kvar=0.6541809108963887 Phases=3


New Load.load_p5rlv257 conn=wye bus1=p5rlv257.1.2.3 kV=0.48 Vminpu=0.8 Vmaxpu=1.2 model=1 kW=4.519220505127056 kvar=1.2005323543975572 Phases=3


New Load.load_p5rlv258 conn=wye bus1=p5rlv258.1.2.3 kV=0.48 Vminpu=0.8 Vmaxpu=1.2 model=1 kW=5.187432423525801 kvar=1.433323731128063 Phases=3


New Load.load_p5rlv259 conn=wye bus1=p5rlv259.1.2.3 kV=0.48 Vminpu=0.8 Vmaxpu=1.2 model=1 kW=5.678067265095312 kvar=0.7378403729190609 Phases=3


New Load.load_p5rlv260 conn=wye bus1=p5rlv260.1.2.3 kV=0.48 Vminpu=0.8 Vmaxpu=1.2 model=1 kW=5.433821619791644 kvar=1.6465472737477895 Phases=3


New Load.load_p5rlv261 conn=wye bus1=p5rlv261.1.2.3 kV=0.48 Vminpu=0.8 Vmaxpu=1.2 model=1 kW=3.7973697336928827 kvar=1.0868973722790487 Phases=3


New Load.load_p5rlv282 conn=wye bus1=p5rlv282.1.2.3 kV=0.48 Vminpu=0.8 Vmaxpu=1.2 model=1 kW=6.03859463701527 kvar=0.04493949419213512 Phases=3


New Load.load_p5rlv283 conn=wye bus1=p5rlv283.1.2.3 kV=0.48 Vminpu=0.8 Vmaxpu=1.2 model=1 kW=6.02329649859578 kvar=0.6064219066198263 Phases=3


New Load.load_p5rlv284 conn=wye bus1=p5rlv284.1.2.3 kV=0.48 Vminpu=0.8 Vmaxpu=1.2 model=1 kW=4.62251822668678 kvar=1.2938071977195296 Phases=3


New Load.load_p5rlv285 conn=wye bus1=p5rlv285.1.2.3 kV=0.48 Vminpu=0.8 Vmaxpu=1.2 model=1 kW=2.9573786406508327 kvar=0.7333185508455266 Phases=3


New Load.load_p5rlv286 conn=wye bus1=p5rlv286.1.2.3 kV=0.48 Vminpu=0.8 Vmaxpu=1.2 model=1 kW=5.201933206753917 kvar=0.6097573479824435 Phases=3


New Load.load_p5rlv287 conn=wye bus1=p5rlv287.1.2.3 kV=0.48 Vminpu=0.8 Vmaxpu=1.2 model=1 kW=6.476560953403836 kvar=0.5946116743451331 Phases=3


New Load.load_p5rlv288 conn=wye bus1=p5rlv288.1.2.3 kV=0.48 Vminpu=0.8 Vmaxpu=1.2 model=1 kW=4.334975544945445 kvar=1.1515383927259575 Phases=3


New Load.load_p5rlv289 conn=wye bus1=p5rlv289.1.2.3 kV=0.48 Vminpu=0.8 Vmaxpu=1.2 model=1 kW=7.881667037731838 kvar=0.23958082319935115 Phases=3


New Load.load_p5rlv290 conn=wye bus1=p5rlv290.1.2.3 kV=0.48 Vminpu=0.8 Vmaxpu=1.2 model=1 kW=4.683107104578539 kvar=1.4057764239831096 Phases=3


New Load.load_p5rlv296 conn=wye bus1=p5rlv296.1.2.3 kV=0.48 Vminpu=0.8 Vmaxpu=1.2 model=1 kW=4.218355339458662 kvar=1.0973386578430595 Phases=3


New Load.load_p5rlv297 conn=wye bus1=p5rlv297.1.2.3 kV=0.48 Vminpu=0.8 Vmaxpu=1.2 model=1 kW=5.451909124597866 kvar=1.173229792643805 Phases=3


New Load.load_p5rlv298 conn=wye bus1=p5rlv298.1.2.3 kV=0.48 Vminpu=0.8 Vmaxpu=1.2 model=1 kW=5.5870773940808816 kvar=0.037844278067981456 Phases=3


New Load.load_p5rlv299 conn=wye bus1=p5rlv299.1.2.3 kV=0.48 Vminpu=0.8 Vmaxpu=1.2 model=1 kW=4.6536658364487655 kvar=1.3213241310776664 Phases=3


New Load.load_p5rlv324 conn=wye bus1=p5rlv324.1.2.3 kV=0.48 Vminpu=0.8 Vmaxpu=1.2 model=1 kW=5.56336809767631 kvar=1.5287942880321346 Phases=3


New Load.load_p5rlv325 conn=wye bus1=p5rlv325.1.2.3 kV=0.48 Vminpu=0.8 Vmaxpu=1.2 model=1 kW=5.182393383946482 kvar=0.49862257698079865 Phases=3


New Load.load_p5rlv329 conn=wye bus1=p5rlv329.1.2.3 kV=0.48 Vminpu=0.8 Vmaxpu=1.2 model=1 kW=4.218355339458662 kvar=1.0973386578430595 Phases=3


New Load.load_p5rlv330 conn=wye bus1=p5rlv330.1.2.3 kV=0.48 Vminpu=0.8 Vmaxpu=1.2 model=1 kW=5.340789570576971 kvar=1.665377331077049 Phases=3

